53U
  PyMOL2.3          3D                             0

 52 54  0  0  0  0  0  0  0  0999 V2000
   16.3900  -15.7830   23.1600 N   0  3  0  0  0  0  0  0  0  0  0  0
   17.6570  -15.0120   23.1460 C   0  0  0  0  0  0  0  0  0  0  0  0
   17.4360  -13.6310   22.5680 C   0  0  0  0  0  0  0  0  0  0  0  0
   16.5060  -12.9450   23.0320 O   0  0  0  0  0  0  0  0  0  0  0  0
   18.1720  -14.9170   24.5950 C   0  0  0  0  0  0  0  0  0  0  0  0
   19.5920  -14.3710   24.7440 C   0  0  0  0  0  0  0  0  0  0  0  0
   20.6910  -14.9640   24.0890 C   0  0  0  0  0  0  0  0  0  0  0  0
   19.8220  -13.2490   25.5510 C   0  0  0  0  0  0  0  0  0  0  0  0
   21.9860  -14.4540   24.2350 C   0  0  0  0  0  0  0  0  0  0  0  0
   21.1010  -12.7410   25.6970 C   0  0  0  0  0  0  0  0  0  0  0  0
   22.1890  -13.3330   25.0460 C   0  0  0  0  0  0  0  0  0  0  0  0
   18.2450  -13.1710   21.5890 N   0  0  0  0  0  0  0  0  0  0  0  0
   18.0280  -11.8220   21.0620 C   0  0  0  0  0  0  0  0  0  0  0  0
   16.6090  -11.7290   20.5280 C   0  0  0  0  0  0  0  0  0  0  0  0
   16.2150  -12.7280   19.9260 O   0  0  0  0  0  0  0  0  0  0  0  0
   18.9440  -11.8950   19.8030 C   0  0  0  0  0  0  0  0  0  0  0  0
   20.1040  -12.7670   20.3170 C   0  0  0  0  0  0  0  0  0  0  0  0
   19.3760  -13.9390   21.0230 C   0  0  0  0  0  0  0  0  0  0  0  0
   15.9710  -10.5760   20.7540 N   0  0  0  0  0  0  0  0  0  0  0  0
   14.6590  -10.4300   20.1130 C   0  0  0  0  0  0  0  0  0  0  0  0
   13.5670  -10.4920   21.1900 C   0  0  0  0  0  0  0  0  0  0  0  0
   13.3860   -9.3970   22.0370 C   0  0  0  0  0  0  0  0  0  0  0  0
   12.4020   -9.4430   23.0150 C   0  0  0  0  0  0  0  0  0  0  0  0
   11.5890  -10.5670   23.1640 C   0  0  0  0  0  0  0  0  0  0  0  0
   11.7790  -11.6630   22.3090 C   0  0  0  0  0  0  0  0  0  0  0  0
   12.7700  -11.6130   21.3270 C   0  0  0  0  0  0  0  0  0  0  0  0
   18.2130  -15.9250   24.9520 H   0  0  0  0  0  0  0  0  0  0  0  0
   17.5380  -14.2040   25.0790 H   0  0  0  0  0  0  0  0  0  0  0  0
   19.0030  -12.7820   26.0580 H   0  0  0  0  0  0  0  0  0  0  0  0
   20.5320  -15.8210   23.4680 H   0  0  0  0  0  0  0  0  0  0  0  0
   21.2600  -11.8830   26.3170 H   0  0  0  0  0  0  0  0  0  0  0  0
   22.8100  -14.9160   23.7330 H   0  0  0  0  0  0  0  0  0  0  0  0
   23.1720  -12.9300   25.1680 H   0  0  0  0  0  0  0  0  0  0  0  0
   18.3800  -15.5050   22.5300 H   0  0  0  0  0  0  0  0  0  0  0  0
   16.4880  -16.5750   23.7630 H   0  0  0  0  0  0  0  0  0  0  0  0
   15.6490  -15.2000   23.4930 H   0  0  0  0  0  0  0  0  0  0  0  0
   16.1790  -16.0940   22.2330 H   0  0  0  0  0  0  0  0  0  0  0  0
   19.3210  -10.9140   19.6020 H   0  0  0  0  0  0  0  0  0  0  0  0
   18.4260  -12.4360   19.0390 H   0  0  0  0  0  0  0  0  0  0  0  0
   20.6350  -12.2100   21.0600 H   0  0  0  0  0  0  0  0  0  0  0  0
   20.6250  -13.1610   19.4690 H   0  0  0  0  0  0  0  0  0  0  0  0
   19.0040  -14.6170   20.2840 H   0  0  0  0  0  0  0  0  0  0  0  0
   19.9880  -14.3020   21.8220 H   0  0  0  0  0  0  0  0  0  0  0  0
   18.2010  -11.0300   21.7600 H   0  0  0  0  0  0  0  0  0  0  0  0
   14.5240  -11.2850   19.4840 H   0  0  0  0  0  0  0  0  0  0  0  0
   14.6260   -9.4460   19.6930 H   0  0  0  0  0  0  0  0  0  0  0  0
   14.0020   -8.5280   21.9330 H   0  0  0  0  0  0  0  0  0  0  0  0
   12.2650   -8.6040   23.6640 H   0  0  0  0  0  0  0  0  0  0  0  0
   10.8320  -10.5930   23.9190 H   0  0  0  0  0  0  0  0  0  0  0  0
   11.1660  -12.5340   22.4090 H   0  0  0  0  0  0  0  0  0  0  0  0
   12.9140  -12.4490   20.6750 H   0  0  0  0  0  0  0  0  0  0  0  0
   16.3640   -9.8560   21.3260 H   0  0  0  0  0  0  0  0  0  0  0  0
  1  2  1  0  0  0  0
  1 35  1  0  0  0  0
  1 36  1  0  0  0  0
  1 37  1  0  0  0  0
  2  3  1  0  0  0  0
  2  5  1  0  0  0  0
  2 34  1  0  0  0  0
  3  4  2  0  0  0  0
  3 12  1  0  0  0  0
  5  6  1  0  0  0  0
  5 27  1  0  0  0  0
  5 28  1  0  0  0  0
  6  7  4  0  0  0  0
  6  8  4  0  0  0  0
  7  9  4  0  0  0  0
  7 30  1  0  0  0  0
  8 10  4  0  0  0  0
  8 29  1  0  0  0  0
  9 11  4  0  0  0  0
  9 32  1  0  0  0  0
 10 11  4  0  0  0  0
 10 31  1  0  0  0  0
 11 33  1  0  0  0  0
 12 13  1  0  0  0  0
 12 18  1  0  0  0  0
 13 14  1  0  0  0  0
 13 16  1  0  0  0  0
 13 44  1  0  0  0  0
 14 15  2  0  0  0  0
 14 19  1  0  0  0  0
 16 17  1  0  0  0  0
 16 38  1  0  0  0  0
 16 39  1  0  0  0  0
 17 18  1  0  0  0  0
 17 40  1  0  0  0  0
 17 41  1  0  0  0  0
 18 42  1  0  0  0  0
 18 43  1  0  0  0  0
 19 20  1  0  0  0  0
 19 52  1  0  0  0  0
 20 21  1  0  0  0  0
 20 45  1  0  0  0  0
 20 46  1  0  0  0  0
 21 22  4  0  0  0  0
 21 26  4  0  0  0  0
 22 23  4  0  0  0  0
 22 47  1  0  0  0  0
 23 24  4  0  0  0  0
 23 48  1  0  0  0  0
 24 25  4  0  0  0  0
 24 49  1  0  0  0  0
 25 26  4  0  0  0  0
 25 50  1  0  0  0  0
 26 51  1  0  0  0  0
M  END
$$$$
