@<TRIPOS>MOLECULE
51U
   55    57     1     0     0
SMALL
bcc


@<TRIPOS>ATOM
      1 N1          16.0130   -15.5380    23.0710 n4       501 51U      -0.840600
      2 C2          17.2490   -14.7450    23.1640 c3       501 51U       0.045500
      3 C3          17.0420   -13.3530    22.6130 c        501 51U       0.667100
      4 O1          16.0810   -12.6940    22.9920 o        501 51U      -0.551100
      5 C1          17.7490   -14.6700    24.6200 c3       501 51U      -0.044100
      6 C17         19.1850   -14.1520    24.6720 ca       501 51U      -0.131300
      7 C18         20.2010   -14.8200    23.9830 ca       501 51U      -0.117000
      8 C23         19.4960   -13.0070    25.4070 ca       501 51U      -0.117000
      9 C19         21.5170   -14.3440    24.0300 ca       501 51U      -0.120000
     10 C22         20.8130   -12.5340    25.4540 ca       501 51U      -0.120000
     11 C20         21.8330   -13.2020    24.7660 ca       501 51U      -0.102000
     12 N2          17.9390   -12.9210    21.7700 n        501 51U      -0.439800
     13 C7          17.7310   -11.7510    20.9540 c3       501 51U       0.029700
     14 C8          16.3270   -11.5810    20.4510 c        501 51U       0.660100
     15 O2          15.7970   -12.4350    19.7650 o        501 51U      -0.728100
     16 C6          18.7900   -11.7940    19.8340 c3       501 51U      -0.087400
     17 C5          19.7500   -12.9320    20.2670 c3       501 51U      -0.087400
     18 C4          18.8340   -13.8640    21.1050 c3       501 51U       0.083000
     19 N3          15.6440   -10.3760    20.8610 n        501 51U      -0.522900
     20 C9          14.3850   -10.1880    20.1890 c3       501 51U       0.136300
     21 C10         13.2690   -10.2630    21.2270 ca       501 51U      -0.132300
     22 C11         13.1080    -9.2420    22.1710 ca       501 51U      -0.123000
     23 C12         12.0820    -9.3200    23.1190 ca       501 51U      -0.067300
     24 C13         11.8900    -8.2190    24.1560 c3       501 51U      -0.060800
     25 C14         11.2300   -10.4200    23.1090 ca       501 51U      -0.110000
     26 C15         11.3810   -11.4490    22.1700 ca       501 51U      -0.121000
     27 C16         12.4080   -11.3620    21.2280 ca       501 51U      -0.113000
     28 H11         17.7750   -15.6760    24.9850 hc       501 51U       0.081700
     29 H12         17.1440   -13.9380    25.1120 hc       501 51U       0.081700
     30 H18         19.9720   -15.6990    23.4170 ha       501 51U       0.134500
     31 H23         18.7250   -12.4880    25.9370 ha       501 51U       0.134500
     32 H19         22.2870   -14.8610    23.4970 ha       501 51U       0.150000
     33 H22         21.0420   -11.6550    26.0200 ha       501 51U       0.150000
     34 H20         22.8400   -12.8420    24.8040 ha       501 51U       0.152000
     35 H2          17.9940   -15.2370    22.5740 hx       501 51U       0.118700
     36 H8          16.0940   -16.3510    23.6480 hn       501 51U       0.471467
     37 H17         15.2390   -14.9860    23.3800 hn       501 51U       0.471467
     38 H13         15.8660   -15.8160    22.1220 hn       501 51U       0.471467
     39 H61         19.3360   -10.8740    19.8620 hc       501 51U       0.075200
     40 H62         18.3030   -12.1000    18.9320 hc       501 51U       0.075200
     41 H51         20.4870   -12.5150    20.9210 hc       501 51U       0.074700
     42 H52         20.0530   -13.4640    19.3890 hc       501 51U       0.074700
     43 H41         18.2530   -14.4570    20.4300 h1       501 51U       0.053200
     44 H42         19.4350   -14.3390    21.8530 h1       501 51U       0.053200
     45 H7          17.8570   -10.8730    21.5530 h1       501 51U       0.111700
     46 H3          16.2270    -9.6160    20.5730 hn       501 51U       0.330500
     47 H91         14.2550   -11.0200    19.5290 h1       501 51U       0.067700
     48 H92         14.3840    -9.1910    19.8000 h1       501 51U       0.067700
     49 H10         13.7700    -8.4010    22.1680 ha       501 51U       0.132000
     50 H131        12.0480    -8.6200    25.1350 hc       501 51U       0.052367
     51 H132        12.5930    -7.4320    23.9750 hc       501 51U       0.052367
     52 H133        10.8950    -7.8320    24.0850 hc       501 51U       0.052367
     53 H14         10.4440   -10.4810    23.8330 ha       501 51U       0.145000
     54 H15         10.7190   -12.2890    22.1750 ha       501 51U       0.143000
     55 H16         12.5360   -12.1400    20.5050 ha       501 51U       0.133000
@<TRIPOS>BOND
     1     1     2 1   
     2     1    36 1   
     3     1    37 1   
     4     1    38 1   
     5     2     3 1   
     6     2     5 1   
     7     2    35 1   
     8     3     4 2   
     9     3    12 1   
    10     5     6 1   
    11     5    28 1   
    12     5    29 1   
    13     6     7 ar  
    14     6     8 ar  
    15     7     9 ar  
    16     7    30 1   
    17     8    10 ar  
    18     8    31 1   
    19     9    11 ar  
    20     9    32 1   
    21    10    11 ar  
    22    10    33 1   
    23    11    34 1   
    24    12    13 1   
    25    12    18 1   
    26    13    14 1   
    27    13    16 1   
    28    13    45 1   
    29    14    15 2   
    30    14    19 1   
    31    16    17 1   
    32    16    39 1   
    33    16    40 1   
    34    17    18 1   
    35    17    41 1   
    36    17    42 1   
    37    18    43 1   
    38    18    44 1   
    39    19    20 1   
    40    19    46 1   
    41    20    21 1   
    42    20    47 1   
    43    20    48 1   
    44    21    22 ar  
    45    21    27 ar  
    46    22    23 ar  
    47    22    49 1   
    48    23    24 1   
    49    23    25 ar  
    50    24    50 1   
    51    24    51 1   
    52    24    52 1   
    53    25    26 ar  
    54    25    53 1   
    55    26    27 ar  
    56    26    54 1   
    57    27    55 1   
@<TRIPOS>SUBSTRUCTURE
     1 51U         1 TEMP              0 ****  ****    0 ROOT
