@<TRIPOS>MOLECULE
53U
   52    54     1     0     0
SMALL
bcc


@<TRIPOS>ATOM
      1 N1          16.3900   -15.7830    23.1600 n4      2001 53U      -0.840600
      2 C2          17.6570   -15.0120    23.1460 c3      2001 53U       0.045500
      3 C3          17.4360   -13.6310    22.5680 c       2001 53U       0.667100
      4 O1          16.5060   -12.9450    23.0320 o       2001 53U      -0.552100
      5 C1          18.1720   -14.9170    24.5950 c3      2001 53U      -0.044100
      6 C16         19.5920   -14.3710    24.7440 ca      2001 53U      -0.131300
      7 C17         20.6910   -14.9640    24.0890 ca      2001 53U      -0.117000
      8 C21         19.8220   -13.2490    25.5510 ca      2001 53U      -0.117000
      9 C18         21.9860   -14.4540    24.2350 ca      2001 53U      -0.120000
     10 C20         21.1010   -12.7410    25.6970 ca      2001 53U      -0.120000
     11 C19         22.1890   -13.3330    25.0460 ca      2001 53U      -0.102000
     12 N2          18.2450   -13.1710    21.5890 n       2001 53U      -0.438800
     13 C7          18.0280   -11.8220    21.0620 c3      2001 53U       0.029700
     14 C8          16.6090   -11.7290    20.5280 c       2001 53U       0.659100
     15 O2          16.2150   -12.7280    19.9260 o       2001 53U      -0.728100
     16 C6          18.9440   -11.8950    19.8030 c3      2001 53U      -0.087400
     17 C5          20.1040   -12.7670    20.3170 c3      2001 53U      -0.087400
     18 C4          19.3760   -13.9390    21.0230 c3      2001 53U       0.083000
     19 N3          15.9710   -10.5760    20.7540 n       2001 53U      -0.524900
     20 C9          14.6590   -10.4300    20.1130 c3      2001 53U       0.138300
     21 C10         13.5670   -10.4920    21.1900 ca      2001 53U      -0.139300
     22 C11         13.3860    -9.3970    22.0370 ca      2001 53U      -0.111500
     23 C12         12.4020    -9.4430    23.0150 ca      2001 53U      -0.126500
     24 C13         11.5890   -10.5670    23.1640 ca      2001 53U      -0.106000
     25 C14         11.7790   -11.6630    22.3090 ca      2001 53U      -0.126500
     26 C15         12.7700   -11.6130    21.3270 ca      2001 53U      -0.111500
     27 H11         18.2130   -15.9250    24.9520 hc      2001 53U       0.082200
     28 H12         17.5380   -14.2040    25.0790 hc      2001 53U       0.082200
     29 H21         19.0030   -12.7820    26.0580 ha      2001 53U       0.134500
     30 H17         20.5320   -15.8210    23.4680 ha      2001 53U       0.134500
     31 H20         21.2600   -11.8830    26.3170 ha      2001 53U       0.150500
     32 H18         22.8100   -14.9160    23.7330 ha      2001 53U       0.150500
     33 H19         23.1720   -12.9300    25.1680 ha      2001 53U       0.152000
     34 H2          18.3800   -15.5050    22.5300 hx      2001 53U       0.118700
     35 H3          16.4880   -16.5750    23.7630 hn      2001 53U       0.471467
     36 H10         15.6490   -15.2000    23.4930 hn      2001 53U       0.471467
     37 H13         16.1790   -16.0940    22.2330 hn      2001 53U       0.471467
     38 H61         19.3210   -10.9140    19.6020 hc      2001 53U       0.075200
     39 H62         18.4260   -12.4360    19.0390 hc      2001 53U       0.075200
     40 H51         20.6350   -12.2100    21.0600 hc      2001 53U       0.074700
     41 H52         20.6250   -13.1610    19.4690 hc      2001 53U       0.074700
     42 H41         19.0040   -14.6170    20.2840 h1      2001 53U       0.053200
     43 H42         19.9880   -14.3020    21.8220 h1      2001 53U       0.053200
     44 H7          18.2010   -11.0300    21.7600 h1      2001 53U       0.111700
     45 H91         14.5240   -11.2850    19.4840 h1      2001 53U       0.066700
     46 H92         14.6260    -9.4460    19.6930 h1      2001 53U       0.066700
     47 H8          14.0020    -8.5280    21.9330 ha      2001 53U       0.134500
     48 H16         12.2650    -8.6040    23.6640 ha      2001 53U       0.144500
     49 H22         10.8320   -10.5930    23.9190 ha      2001 53U       0.146000
     50 H14         11.1660   -12.5340    22.4090 ha      2001 53U       0.144500
     51 H15         12.9140   -12.4490    20.6750 ha      2001 53U       0.134500
     52 H           16.3640    -9.8560    21.3260 hn      2001 53U       0.331500
@<TRIPOS>BOND
     1     1     2 1   
     2     1    35 1   
     3     1    36 1   
     4     1    37 1   
     5     2     3 1   
     6     2     5 1   
     7     2    34 1   
     8     3     4 2   
     9     3    12 1   
    10     5     6 1   
    11     5    27 1   
    12     5    28 1   
    13     6     7 ar  
    14     6     8 ar  
    15     7     9 ar  
    16     7    30 1   
    17     8    10 ar  
    18     8    29 1   
    19     9    11 ar  
    20     9    32 1   
    21    10    11 ar  
    22    10    31 1   
    23    11    33 1   
    24    12    13 1   
    25    12    18 1   
    26    13    14 1   
    27    13    16 1   
    28    13    44 1   
    29    14    15 2   
    30    14    19 1   
    31    16    17 1   
    32    16    38 1   
    33    16    39 1   
    34    17    18 1   
    35    17    40 1   
    36    17    41 1   
    37    18    42 1   
    38    18    43 1   
    39    19    20 1   
    40    19    52 1   
    41    20    21 1   
    42    20    45 1   
    43    20    46 1   
    44    21    22 ar  
    45    21    26 ar  
    46    22    23 ar  
    47    22    47 1   
    48    23    24 ar  
    49    23    48 1   
    50    24    25 ar  
    51    24    49 1   
    52    25    26 ar  
    53    25    50 1   
    54    26    51 1   
@<TRIPOS>SUBSTRUCTURE
     1 53U         1 TEMP              0 ****  ****    0 ROOT
