@<TRIPOS>MOLECULE
MOL
   22    22     1     0     0
SMALL
resp


@<TRIPOS>ATOM
      1 C        24.2660   -23.9660     0.0670 c3         1 MOL      -0.257905
      2 C        21.4510   -27.2440    -4.2430 ca         1 MOL      -0.190157
      3 C        21.9210   -26.7500    -5.4630 ca         1 MOL      -0.141320
      4 C        22.6010   -25.5340    -5.5060 ca         1 MOL      -0.274932
      5 C        22.8180   -24.8110    -4.3290 ca         1 MOL       0.346833
      6 C        21.6740   -26.5100    -3.0770 ca         1 MOL      -0.155612
      7 C        22.3570   -25.2860    -3.0850 ca         1 MOL      -0.135337
      8 C        22.6140   -24.5350    -1.7960 c3         1 MOL      -0.076455
      9 C        24.0400   -24.7290    -1.2380 c3         1 MOL       0.150551
     10 O        23.5040   -23.6180    -4.4640 oh         1 MOL      -0.647568
     11 H        25.2820   -24.1230     0.4480 hc         1 MOL       0.061093
     12 H        24.1260   -22.8870    -0.0750 hc         1 MOL       0.061093
     13 H        23.5640   -24.2930     0.8440 hc         1 MOL       0.061093
     14 H        20.9150   -28.1880    -4.2000 ha         1 MOL       0.143348
     15 H        21.7570   -27.3060    -6.3820 ha         1 MOL       0.147843
     16 H        22.9710   -25.1290    -6.4430 ha         1 MOL       0.177582
     17 H        21.3070   -26.8890    -2.1250 ha         1 MOL       0.149253
     18 H        21.8910   -24.8720    -1.0440 hc         1 MOL       0.053000
     19 H        22.4270   -23.4590    -1.9280 hc         1 MOL       0.053000
     20 H        24.2140   -25.8010    -1.0790 hc         1 MOL      -0.010122
     21 H        24.7720   -24.4040    -1.9900 hc         1 MOL      -0.010122
     22 H        23.5460   -23.1630    -3.6070 ho         1 MOL       0.494840
@<TRIPOS>BOND
     1     1     9 1   
     2     1    11 1   
     3     1    12 1   
     4     1    13 1   
     5     2     3 ar  
     6     2     6 ar  
     7     2    14 1   
     8     3     4 ar  
     9     3    15 1   
    10     4     5 ar  
    11     4    16 1   
    12     5     7 ar  
    13     5    10 1   
    14     6     7 ar  
    15     6    17 1   
    16     7     8 1   
    17     8     9 1   
    18     8    18 1   
    19     8    19 1   
    20     9    20 1   
    21     9    21 1   
    22    10    22 1   
@<TRIPOS>SUBSTRUCTURE
     1 MOL         1 TEMP              0 ****  ****    0 ROOT
